21679027
  -OEChem-04162500493D

 72 77  0     1  0  0  0  0  0999 V2000
   -3.1832   -2.3620   -1.0095 O   0  0  0  0  0  0  0  0  0  0  0  0
   -5.0137   -0.5381   -1.5225 O   0  0  0  0  0  0  0  0  0  0  0  0
    1.5294    0.0544   -2.1705 O   0  0  0  0  0  0  0  0  0  0  0  0
   -4.3665    2.7913   -0.2043 O   0  0  0  0  0  0  0  0  0  0  0  0
    4.5904   -1.1896   -0.6474 O   0  0  0  0  0  0  0  0  0  0  0  0
    5.5883   -2.3051    1.0366 O   0  0  0  0  0  0  0  0  0  0  0  0
   -1.8165   -0.8583    0.4237 C   0  0  1  0  0  0  0  0  0  0  0  0
   -0.4651   -0.9340   -0.2913 C   0  0  1  0  0  0  0  0  0  0  0  0
   -2.5753    0.4252   -0.0709 C   0  0  1  0  0  0  0  0  0  0  0  0
    0.4481    0.2736    0.0358 C   0  0  1  0  0  0  0  0  0  0  0  0
   -2.6119   -2.1184    0.2695 C   0  0  1  0  0  0  0  0  0  0  0  0
   -4.1021   -2.0638    0.0689 C   0  0  1  0  0  0  0  0  0  0  0  0
   -4.0409    0.4593    0.5166 C   0  0  1  0  0  0  0  0  0  0  0  0
   -4.8337   -0.7522   -0.1041 C   0  0  1  0  0  0  0  0  0  0  0  0
    1.7193   -0.1397   -0.7630 C   0  0  1  0  0  0  0  0  0  0  0  0
   -1.6873    1.6758    0.1798 C   0  0  0  0  0  0  0  0  0  0  0  0
   -0.2763    1.5449   -0.4356 C   0  0  0  0  0  0  0  0  0  0  0  0
    0.4415   -2.1371   -0.0457 C   0  0  0  0  0  0  0  0  0  0  0  0
    1.8464   -1.6571   -0.4704 C   0  0  0  0  0  0  0  0  0  0  0  0
    0.7780    0.4142    1.5483 C   0  0  0  0  0  0  0  0  0  0  0  0
    2.9955    0.6221   -0.4179 C   0  0  1  0  0  0  0  0  0  0  0  0
   -6.2657   -0.8423    0.4610 C   0  0  0  0  0  0  0  0  0  0  0  0
   -4.0089    0.4136    2.0661 C   0  0  0  0  0  0  0  0  0  0  0  0
   -4.8607    1.7218    0.1415 C   0  0  0  0  0  0  0  0  0  0  0  0
    4.1808    0.0726   -1.2077 C   0  0  1  0  0  0  0  0  0  0  0  0
   -6.9637    0.4859    0.4498 C   0  0  0  0  0  0  0  0  0  0  0  0
   -6.3457    1.6587    0.2734 C   0  0  0  0  0  0  0  0  0  0  0  0
    2.8175    2.1152   -0.6867 C   0  0  0  0  0  0  0  0  0  0  0  0
    5.3674    1.0193   -1.2807 C   0  0  0  0  0  0  0  0  0  0  0  0
    6.0940    1.0693    0.0341 C   0  0  0  0  0  0  0  0  0  0  0  0
    5.4020   -1.2485    0.4403 C   0  0  0  0  0  0  0  0  0  0  0  0
    6.0733    0.0125    0.8699 C   0  0  0  0  0  0  0  0  0  0  0  0
    6.8274    2.3573    0.2872 C   0  0  0  0  0  0  0  0  0  0  0  0
    6.7178   -0.0409    2.2256 C   0  0  0  0  0  0  0  0  0  0  0  0
   -1.6379   -0.7658    1.4996 H   0  0  0  0  0  0  0  0  0  0  0  0
   -0.6959   -0.9406   -1.3676 H   0  0  0  0  0  0  0  0  0  0  0  0
   -2.6753    0.3610   -1.1648 H   0  0  0  0  0  0  0  0  0  0  0  0
   -2.2015   -2.9592    0.8131 H   0  0  0  0  0  0  0  0  0  0  0  0
   -4.7096   -2.8831    0.4278 H   0  0  0  0  0  0  0  0  0  0  0  0
   -1.6091    1.8840    1.2512 H   0  0  0  0  0  0  0  0  0  0  0  0
   -2.1315    2.5634   -0.2754 H   0  0  0  0  0  0  0  0  0  0  0  0
   -0.3817    1.5442   -1.5275 H   0  0  0  0  0  0  0  0  0  0  0  0
    0.2435    2.4651   -0.1759 H   0  0  0  0  0  0  0  0  0  0  0  0
    0.1280   -3.0074   -0.6316 H   0  0  0  0  0  0  0  0  0  0  0  0
    0.4404   -2.4332    1.0095 H   0  0  0  0  0  0  0  0  0  0  0  0
    2.5151   -1.8687    0.3701 H   0  0  0  0  0  0  0  0  0  0  0  0
    2.1883   -2.2214   -1.3449 H   0  0  0  0  0  0  0  0  0  0  0  0
    1.3395   -0.4406    1.9379 H   0  0  0  0  0  0  0  0  0  0  0  0
    1.3732    1.3110    1.7475 H   0  0  0  0  0  0  0  0  0  0  0  0
   -0.1153    0.5080    2.1708 H   0  0  0  0  0  0  0  0  0  0  0  0
    3.2099    0.5000    0.6502 H   0  0  0  0  0  0  0  0  0  0  0  0
   -6.2634   -1.2319    1.4860 H   0  0  0  0  0  0  0  0  0  0  0  0
   -6.8605   -1.5418   -0.1409 H   0  0  0  0  0  0  0  0  0  0  0  0
   -3.6639   -0.5512    2.4489 H   0  0  0  0  0  0  0  0  0  0  0  0
   -3.3537    1.1921    2.4701 H   0  0  0  0  0  0  0  0  0  0  0  0
   -4.9924    0.5927    2.5133 H   0  0  0  0  0  0  0  0  0  0  0  0
   -5.4575   -1.3213   -1.8910 H   0  0  0  0  0  0  0  0  0  0  0  0
    0.9785   -0.6635   -2.5223 H   0  0  0  0  0  0  0  0  0  0  0  0
    3.8940   -0.1378   -2.2443 H   0  0  0  0  0  0  0  0  0  0  0  0
   -8.0430    0.4777    0.5745 H   0  0  0  0  0  0  0  0  0  0  0  0
   -6.8992    2.5897    0.2362 H   0  0  0  0  0  0  0  0  0  0  0  0
    2.5102    2.3362   -1.7131 H   0  0  0  0  0  0  0  0  0  0  0  0
    2.1133    2.5636    0.0090 H   0  0  0  0  0  0  0  0  0  0  0  0
    3.7168    2.6961   -0.4684 H   0  0  0  0  0  0  0  0  0  0  0  0
    5.1225    2.0063   -1.6802 H   0  0  0  0  0  0  0  0  0  0  0  0
    6.0878    0.6075   -2.0033 H   0  0  0  0  0  0  0  0  0  0  0  0
    7.4257    2.6260   -0.5905 H   0  0  0  0  0  0  0  0  0  0  0  0
    7.5200    2.3067    1.1302 H   0  0  0  0  0  0  0  0  0  0  0  0
    6.1150    3.1661    0.4781 H   0  0  0  0  0  0  0  0  0  0  0  0
    6.0548   -0.5333    2.9460 H   0  0  0  0  0  0  0  0  0  0  0  0
    6.9293    0.9485    2.6386 H   0  0  0  0  0  0  0  0  0  0  0  0
    7.6549   -0.6047    2.1787 H   0  0  0  0  0  0  0  0  0  0  0  0
  1 11  1  0  0  0  0
  1 12  1  0  0  0  0
  2 14  1  0  0  0  0
  2 57  1  0  0  0  0
  3 15  1  0  0  0  0
  3 58  1  0  0  0  0
  4 24  2  0  0  0  0
  5 25  1  0  0  0  0
  5 31  1  0  0  0  0
  6 31  2  0  0  0  0
  7  8  1  0  0  0  0
  7  9  1  0  0  0  0
  7 11  1  0  0  0  0
  7 35  1  0  0  0  0
  8 10  1  0  0  0  0
  8 18  1  0  0  0  0
  8 36  1  0  0  0  0
  9 13  1  0  0  0  0
  9 16  1  0  0  0  0
  9 37  1  0  0  0  0
 10 15  1  0  0  0  0
 10 17  1  0  0  0  0
 10 20  1  0  0  0  0
 11 12  1  0  0  0  0
 11 38  1  0  0  0  0
 12 14  1  0  0  0  0
 12 39  1  0  0  0  0
 13 14  1  0  0  0  0
 13 23  1  0  0  0  0
 13 24  1  0  0  0  0
 14 22  1  0  0  0  0
 15 19  1  0  0  0  0
 15 21  1  0  0  0  0
 16 17  1  0  0  0  0
 16 40  1  0  0  0  0
 16 41  1  0  0  0  0
 17 42  1  0  0  0  0
 17 43  1  0  0  0  0
 18 19  1  0  0  0  0
 18 44  1  0  0  0  0
 18 45  1  0  0  0  0
 19 46  1  0  0  0  0
 19 47  1  0  0  0  0
 20 48  1  0  0  0  0
 20 49  1  0  0  0  0
 20 50  1  0  0  0  0
 21 25  1  0  0  0  0
 21 28  1  0  0  0  0
 21 51  1  0  0  0  0
 22 26  1  0  0  0  0
 22 52  1  0  0  0  0
 22 53  1  0  0  0  0
 23 54  1  0  0  0  0
 23 55  1  0  0  0  0
 23 56  1  0  0  0  0
 24 27  1  0  0  0  0
 25 29  1  0  0  0  0
 25 59  1  0  0  0  0
 26 27  2  0  0  0  0
 26 60  1  0  0  0  0
 27 61  1  0  0  0  0
 28 62  1  0  0  0  0
 28 63  1  0  0  0  0
 28 64  1  0  0  0  0
 29 30  1  0  0  0  0
 29 65  1  0  0  0  0
 29 66  1  0  0  0  0
 30 32  2  0  0  0  0
 30 33  1  0  0  0  0
 31 32  1  0  0  0  0
 32 34  1  0  0  0  0
 33 67  1  0  0  0  0
 33 68  1  0  0  0  0
 33 69  1  0  0  0  0
 34 70  1  0  0  0  0
 34 71  1  0  0  0  0
 34 72  1  0  0  0  0
M  END
> <PUBCHEM_COMPOUND_CID>
21679027

> <PUBCHEM_CONFORMER_RMSD>
0.8

> <PUBCHEM_CONFORMER_DIVERSEORDER>
2
6
7
4
5
1
3

> <PUBCHEM_MMFF94_PARTIAL_CHARGES>
29
1 -0.3
11 -0.05
12 -0.05
13 0.06
14 0.38
15 0.28
2 -0.68
22 0.14
24 0.49
25 0.28
26 -0.29
27 -0.14
29 0.14
3 -0.68
30 -0.28
31 0.71
32 -0.12
33 0.14
34 0.14
38 0.1
39 0.1
4 -0.57
5 -0.43
57 0.4
58 0.4
6 -0.57
60 0.15
61 0.15
7 0.09

> <PUBCHEM_EFFECTIVE_ROTOR_COUNT>
4

> <PUBCHEM_PHARMACOPHORE_FEATURES>
13
1 1 acceptor
1 2 acceptor
1 2 donor
1 28 hydrophobe
1 3 acceptor
1 3 donor
1 4 acceptor
1 6 acceptor
5 8 10 15 18 19 rings
6 13 14 22 24 26 27 rings
6 5 25 29 30 31 32 rings
6 7 8 9 10 16 17 rings
7 1 7 9 11 12 13 14 rings

> <PUBCHEM_HEAVY_ATOM_COUNT>
34

> <PUBCHEM_ATOM_DEF_STEREO_COUNT>
11

> <PUBCHEM_ATOM_UDEF_STEREO_COUNT>
0

> <PUBCHEM_BOND_DEF_STEREO_COUNT>
0

> <PUBCHEM_BOND_UDEF_STEREO_COUNT>
0

> <PUBCHEM_ISOTOPIC_ATOM_COUNT>
0

> <PUBCHEM_COMPONENT_COUNT>
1

> <PUBCHEM_CACTVS_TAUTO_COUNT>
3

> <PUBCHEM_CONFORMER_ID>
014ACBB300000002

> <PUBCHEM_MMFF94_ENERGY>
137.0515

> <PUBCHEM_FEATURE_SELFOVERLAP>
66.057

> <PUBCHEM_SHAPE_FINGERPRINT>
10 15 18334861636238585720
10411042 1 17764028365516144119
10675989 125 17113537018109020885
11315181 36 17489595584354463545
11719270 70 18341895160439709246
11756154 67 17544756730022649626
12166972 35 17531253880549113885
12236239 1 17894633664482163029
12422481 6 18260831445394497110
12516196 113 17918277553930960801
12838862 33 18339632366432840653
13533116 47 18113335281134217362
13782708 43 13768222617775473049
13914758 101 16950558857770181005
14394314 77 18409169904814457833
15021287 119 17458069261496997925
15183329 4 18408891736719270358
15510800 12 13840804602484291456
1577012 14 18334860532215517948
15788980 27 18114188539983726391
17349148 13 17894922823355917406
17857418 61 18408603682169114694
17980427 23 18336266833352077060
1813 80 16732704935478636358
18608769 82 18339930415746401603
20511986 3 18411973650574372639
21033648 29 17774424088899499554
21130935 74 18408324371519117106
21236236 1 18413109472319490045
21859007 373 17678449775646717429
22061861 79 14490187207281159482
23559900 14 18130502028734413193
23569943 247 16226870165401713138
24771293 8 18340481296630938836
3004659 81 18333740109135652948
32027 91 17698457532676351462
34797466 226 17561093522525795068
350125 39 18411701001881932385
3633792 109 17676472935940524535
3680242 22 18335709308300864128
394071 54 15554157173566635720
4073 2 18042129911344159146
4093350 32 17060346180134844166
4169191 19 18189896594790003716
4197921 191 18187373146219973725
4340502 62 18342454825328282734
44249763 50 17417517120827844598
5104073 3 18336554888318749314
513202 73 16371275624346892758
59755656 520 17167865287996342299
6086070 43 17489579104100790369
7226269 152 18272936007701891441

> <PUBCHEM_SHAPE_MULTIPOLES>
664.49
18.8
2.44
1.38
6.78
0.05
-0.27
-4
-4.28
-0.44
0.13
1.19
0.02
-0.91

> <PUBCHEM_SHAPE_SELFOVERLAP>
1451.261

> <PUBCHEM_SHAPE_VOLUME>
354.7

> <PUBCHEM_COORDINATE_TYPE>
2
5
10

$$$$
